** ----------------------------------------------------------------
** 
** MATERIALS
** 
*Material, name=Bone
*Density
1.89e-09,
*Elastic
2500.000000, 0.300000
*Concrete Damaged Plasticity
40.000000, 0.100000, 1.160000, 0.666700, 0.000000
*Concrete Compression Hardening
120.000000, 0.000000
121.034483, 0.001379
122.068966, 0.002759
123.103448, 0.004138
124.137931, 0.005517
125.172414, 0.006897
126.206897, 0.008276
127.241379, 0.009655
128.275862, 0.011034
129.310345, 0.012414
130.344828, 0.013793
131.379310, 0.015172
132.413793, 0.016552
133.448276, 0.017931
134.482759, 0.019310
135.517241, 0.020690
136.551724, 0.022069
137.586207, 0.023448
138.620690, 0.024828
139.655172, 0.026207
** ... 151 like lines cut
*Concrete Tension Stiffening
90.000000, 0.000000
88.982143, 0.001169
87.964286, 0.002338
86.946429, 0.003507
85.928571, 0.004676
84.910714, 0.005845
83.892857, 0.007014
82.875000, 0.008183
81.857143, 0.009352
80.839286, 0.010521
79.821429, 0.011690
78.803571, 0.012860
77.785714, 0.014029
76.767857, 0.015198
75.750000, 0.016367
74.732143, 0.017536
73.714286, 0.018705
72.696429, 0.019874
71.678571, 0.021043
70.660714, 0.022212
** ... 65 like lines cut
*Concrete Compression Damage
0.000000, 0.000000
0.000000, 0.001379
0.000000, 0.002759
0.000000, 0.004138
0.000000, 0.005517
0.000000, 0.006897
0.000000, 0.008276
0.000000, 0.009655
0.000000, 0.011034
0.000000, 0.012414
0.000000, 0.013793
0.000000, 0.015172
0.000000, 0.016552
0.000000, 0.017931
0.000000, 0.019310
0.000000, 0.020690
0.000000, 0.022069
0.000000, 0.023448
0.000000, 0.024828
0.000000, 0.026207
** ... 151 like lines cut
*Concrete Tension Damage
0.000000, 0.000000
0.011310, 0.001169
0.022619, 0.002338
0.033929, 0.003507
0.045238, 0.004676
0.056548, 0.005845
0.067857, 0.007014
0.079167, 0.008183
0.090476, 0.009352
0.101786, 0.010521
0.113095, 0.011690
0.124405, 0.012860
0.135714, 0.014029
0.147024, 0.015198
0.158333, 0.016367
0.169643, 0.017536
0.180952, 0.018705
0.192262, 0.019874
0.203571, 0.021043
0.214881, 0.022212
** ... 65 like lines cut
*Concrete Failure, TYPE=Strain
0.197000, 0.098200, 0.950000, 0.950000
** 
** ----------------------------------------------------------------
