*Heading
** Job name: Job-1 Model name: contiOpti
** Generated by: Abaqus/CAE 2020
*Preprint, echo=NO, model=NO, history=NO, contact=NO
**
** PARTS
**
*Part, name=CubeBoolean
*End Part
**  
*Part, name=Screw
*End Part
**  
**
** ASSEMBLY
**
*Assembly, name=Assembly
**  
*Instance, name=CubeBoolean-1, part=CubeBoolean
*Node
      1, 0.0858448818, -0.0512899272,           1.
      2,  0.694610476,   1.87550426,   9.46129036

  76866,  -3.48615026,   2.53136253,   9.24885654
  76867,   2.95677853,  -4.34363461,   2.77991509
*Element, type=C3D10
    1,  3238,  3239,  3240,  3241, 10382, 10381, 10380, 10384, 10383, 10385
    2,  3238,  3242,  3243,  3244, 10388, 10387, 10386, 10390, 10389, 10391

52874,  4281,  4453,  4454,  6738, 13937, 13934, 13938, 24264, 59484, 24250
52875,  4224,  5656,  5876,  8715, 42233, 57730, 19695, 36567, 42232, 73454
*Nset, nset=_PickedSet2, internal, generate
     1,  76867,      1
*Elset, elset=_PickedSet2, internal, generate
     1,  52875,      1
** Section: Bone
*Solid Section, elset=_PickedSet2, controls=EC-1, material=Bone
,
*End Instance
**  
*Instance, name=Screw-2, part=Screw
          0.,           0.,           1.
*Node
      1,  0.100000001,           0.,           0.
      2, -0.880788326,  -1.79560912,   9.31451607
      3, -0.418374449, -0.852914333,   9.11451626


  43612,  0.846902966,  0.430413038,   1.85142231
  43613,  0.502957225,  0.805936754,    2.1021049
*Element, type=C3D10
    1,  3254,  3255,  3256,  3257,  6289,  6288,  6287,  6291,  6290,  6292
    2,  3254,  3258,  3255,  3257,  6294,  6293,  6289,  6291,  6295,  6290
    3,  3254,  3259,  3260,  3261,  6298,  6297,  6296,  6300,  6299,  6301
 

27790,  5234,  2125,  5233,   786, 33545, 33546, 15366, 40313, 41631, 41632
27791,  5999,  1164,  1684,  1161, 28318, 28463, 24513, 28433, 28434, 25864
*Nset, nset=_PickedSet5, internal, generate
     1,  43613,      1
*Elset, elset=_PickedSet5, internal, generate
     1,  27791,      1
** Section: Screw
*Solid Section, elset=_PickedSet5, controls=EC-1, material=Screw
,
*End Instance
**  
*Node
      1,           0., -1.22464685e-16,          11.
*Nset, nset=ScrewTop, instance=Screw-2
    46,    47,    48,    50,    51,   809,   829,   830,   831,   832,   844,   845,   846,   847,   848,   849
   850,   851,   852,   853,   854,   855,   856,   857,   858,   859,   860,   861,   862,   877,   878,   879

 41287, 41288, 41345, 41347, 41442, 41450, 41458, 41529, 41549, 41565, 41757, 41891, 41946, 41947, 42237, 42273
 42294, 42312, 42353, 42368, 42396, 42399, 42401, 42417, 42418, 42420, 42789, 42876, 42952
*Elset, elset=ScrewTop, instance=Screw-2
   108,   181,   221,   253,   298,   550,   792,   851,   865,   965,  1090,  1176,  1276,  1304,  1759,  1765
  1824,  2016,  2079,  2686,  3036,  3150,  3394,  3550,  3721,  4008,  4067,  4078,  4309,  4460,  4657,  4717

 21388, 21390, 21398, 21429, 21431, 21433, 21441, 21454, 21934, 22354, 22631, 22948, 22949, 22951, 23561, 23566
 24006, 24684, 24849, 24864, 26144, 26982
*Nset, nset=ScrewTopRef
 1,
*Nset, nset=_PickedSet12, internal
 1,
*Nset, nset=_PickedSet13, internal, instance=Screw-2
    46,    47,    48,    50,    51,   809,   829,   830,   831,   832,   844,   845,   846,   847,   848,   849
   850,   851,   852,   853,   854,   855,   856,   857,   858,   859,   860,   861,   862,   877,   878,   879

 41287, 41288, 41345, 41347, 41442, 41450, 41458, 41529, 41549, 41565, 41757, 41891, 41946, 41947, 42237, 42273
 42294, 42312, 42353, 42368, 42396, 42399, 42401, 42417, 42418, 42420, 42789, 42876, 42952
*Elset, elset=_PickedSet13, internal, instance=Screw-2
   108,   181,   221,   253,   298,   550,   792,   851,   865,   965,  1090,  1176,  1276,  1304,  1759,  1765
  1824,  2016,  2079,  2686,  3036,  3150,  3394,  3550,  3721,  4008,  4067,  4078,  4309,  4460,  4657,  4717

 21388, 21390, 21398, 21429, 21431, 21433, 21441, 21454, 21934, 22354, 22631, 22948, 22949, 22951, 23561, 23566
 24006, 24684, 24849, 24864, 26144, 26982
*Nset, nset=_PickedSet15, internal, instance=CubeBoolean-1
    44,    45,    51,    52,   403,   404,   405,   406,   407,   408,   409,   410,   411,   412,   413,   414
   415,   416,   417,   418,   419,   420,   421,   508,   509,   510,   511,   512,   513,   514,   515,   516

 67727, 68334, 68724, 68814, 70389, 71470, 71528, 71529, 71530, 71531, 71602, 71633, 71691, 71827, 71829, 72148
 72235, 72484, 72592, 72728, 72772, 72773, 73005, 73211, 73268, 73949, 73950, 74230, 75478, 75949, 75950, 76343
 76463,
*Elset, elset=_PickedSet15, internal, instance=CubeBoolean-1
   213,   215,   227,   593,   749,  1183,  1284,  1432,  1742,  1856,  2176,  2839,  2843,  2852,  3661,  4105
  4177,  4337,  4774,  4788,  5120,  5132,  5143,  5152,  5173,  5186,  5187,  5203,  5268,  5281,  5295,  5306

 32436, 32666, 32970, 32971, 34199, 34307, 34359, 34498, 34532, 34536, 34916, 35793, 35903, 36210, 36415, 36417
 36870, 37059, 37212, 37838, 38149, 38455, 38456, 39292, 40505, 41136, 41663, 41670, 41693, 41710, 41731, 46429
** Constraint: Constraint-1
*Rigid Body, ref node=_PickedSet12, tie nset=_PickedSet13
*End Assembly
** 
** ELEMENT CONTROLS
** 
*Section Controls, name=EC-1, DISTORTION CONTROL=YES, ELEMENT DELETION=YES, MAX DEGRADATION=0.9, second order accuracy=YES
1., 1., 1.
*Amplitude, name=Amp-1, definition=SMOOTH STEP
             0.,              0.,              1.,              1.
** 
** MATERIALS
** 
*Material, name=Bone
*Damage Initiation, criterion=DUCTILE
 0.23832,0.,0.
*Damage Evolution, type=DISPLACEMENT
 0.099753,
*Density
 1.98e-09,
*Elastic
 54.845, 0.3
*Plastic
  9.6545,  0.
 23.6023, 0.5
*Material, name=Screw
*Density
 3.14e-09,
*Elastic
120000., 0.3
** 
** INTERACTION PROPERTIES
** 
*Surface Interaction, name=IntProp-1
*Friction
 0.4514,
*Surface Behavior, pressure-overclosure=HARD
** 
** INTERACTIONS
** 
** Interaction: Int-1
*Contact, op=NEW
*Contact Inclusions, ALL EXTERIOR
*Contact Property Assignment
 ,  , IntProp-1
** ----------------------------------------------------------------
** 
** STEP: Step-1
** 
*Step, name=Step-1, nlgeom=YES
*Dynamic, Explicit
, 1.
*Bulk Viscosity
0.06, 1.2
** Mass Scaling: Semi-Automatic
**               Whole Model
*Fixed Mass Scaling, dt=5e-05, type=below min
** 
** BOUNDARY CONDITIONS
** 
** Name: BC-1 Type: Displacement/Rotation
*Boundary, amplitude=Amp-1
ScrewTopRef, 3, 3, 2.5
** Name: BC-2 Type: Displacement/Rotation
*Boundary, amplitude=Amp-1
_PickedSet15, 1, 1
_PickedSet15, 2, 2
_PickedSet15, 3, 3
_PickedSet15, 4, 4
_PickedSet15, 5, 5
_PickedSet15, 6, 6
** 
** OUTPUT REQUESTS
** 
*Restart, write, number interval=1, time marks=NO
** 
** FIELD OUTPUT: F-Output-1
** 
*Output, field
*Node Output
A, RF, TIEADJUST, TIEDSTATUS, U, V
*Element Output, directions=YES
BURNF, DAMAGEC, DAMAGEMC, DAMAGEMT, DAMAGESHR, DAMAGET, DBURNF, DENSITY, DENSITYVAVG, EACTIVE, EMSF, ESDV, EVF, FV, LE, MFR
PE, PEEQ, PEEQVAVG, PEVAVG, RHOE, RHOP, S, SDV, STATUS, SVAVG, UVARM
*Contact Output
CSTRESS, 
** 
** HISTORY OUTPUT: H-Output-2
** 
*Output, history
*Node Output, nset=ScrewTopRef
RF3, U3, UR3
** 
** HISTORY OUTPUT: H-Output-1
** 
*Output, history, variable=PRESELECT
*End Step
