** ----------------------------------------------------------------
** 
** MATERIALS
** 
*Material, name=Bone
*Density
1.89e-09,
*Elastic
5000.000000, 0.300000
*Concrete Damaged Plasticity
40.000000, 0.100000, 1.160000, 0.666700, 0.000000
*Concrete Compression Hardening
120.000000, 0.000000
121.034483, 0.002414
122.068966, 0.004828
123.103448, 0.007241
124.137931, 0.009655
125.172414, 0.012069
126.206897, 0.014483
127.241379, 0.016897
128.275862, 0.019310
129.310345, 0.021724
130.344828, 0.024138
131.379310, 0.026552
132.413793, 0.028966
133.448276, 0.031379
134.482759, 0.033793
135.517241, 0.036207
136.551724, 0.038621
137.586207, 0.041034
138.620690, 0.043448
139.655172, 0.045862
** ... 151 like lines cut
*Concrete Tension Stiffening
90.000000, 0.000000
88.982143, 0.001180
87.964286, 0.002360
86.946429, 0.003539
85.928571, 0.004719
84.910714, 0.005899
83.892857, 0.007079
82.875000, 0.008258
81.857143, 0.009438
80.839286, 0.010618
79.821429, 0.011798
78.803571, 0.012977
77.785714, 0.014157
76.767857, 0.015337
75.750000, 0.016517
74.732143, 0.017696
73.714286, 0.018876
72.696429, 0.020056
71.678571, 0.021236
70.660714, 0.022415
** ... 65 like lines cut
*Concrete Compression Damage
0.000000, 0.000000
0.000000, 0.002414
0.000000, 0.004828
0.000000, 0.007241
0.000000, 0.009655
0.000000, 0.012069
0.000000, 0.014483
0.000000, 0.016897
0.000000, 0.019310
0.000000, 0.021724
0.000000, 0.024138
0.000000, 0.026552
0.000000, 0.028966
0.000000, 0.031379
0.000000, 0.033793
0.000000, 0.036207
0.000000, 0.038621
0.000000, 0.041034
0.000000, 0.043448
0.000000, 0.045862
** ... 151 like lines cut
*Concrete Tension Damage
0.000000, 0.000000
0.011310, 0.001180
0.022619, 0.002360
0.033929, 0.003539
0.045238, 0.004719
0.056548, 0.005899
0.067857, 0.007079
0.079167, 0.008258
0.090476, 0.009438
0.101786, 0.010618
0.113095, 0.011798
0.124405, 0.012977
0.135714, 0.014157
0.147024, 0.015337
0.158333, 0.016517
0.169643, 0.017696
0.180952, 0.018876
0.192262, 0.020056
0.203571, 0.021236
0.214881, 0.022415
** ... 65 like lines cut
*Concrete Failure, TYPE=Strain
0.198500, 0.099100, 0.950000, 0.950000
** 
** ----------------------------------------------------------------
** ----------------------------------------------------------------
** 
** MATERIALS
** 
*Material, name=Screw
*Density
4.50e-09,
*Elastic
120000.000000, 0.300000
** 
** ----------------------------------------------------------------
