** ----------------------------------------------------------------
** 
** MATERIALS
** 
*Material, name=Bone
*Density
1.89e-09,
*Elastic
18000.000000, 0.300000
*Concrete Damaged Plasticity
40.000000, 0.100000, 1.160000, 0.666700, 0.000000
*Concrete Compression Hardening
150.000000, 0.000000
151.020408, 0.000794
152.040816, 0.001587
153.061224, 0.002381
154.081633, 0.003175
155.102041, 0.003968
156.122449, 0.004762
157.142857, 0.005556
158.163265, 0.006349
159.183673, 0.007143
160.204082, 0.007937
161.224490, 0.008730
162.244898, 0.009524
163.265306, 0.010317
164.285714, 0.011111
165.306122, 0.011905
166.326531, 0.012698
167.346939, 0.013492
168.367347, 0.014286
169.387755, 0.015079
** ... 219 like lines cut
*Concrete Tension Stiffening
100.000000, 0.000000
98.989362, 0.000210
97.978723, 0.000420
96.968085, 0.000629
95.957447, 0.000839
94.946809, 0.001049
93.936170, 0.001259
92.925532, 0.001469
91.914894, 0.001678
90.904255, 0.001888
89.893617, 0.002098
88.882979, 0.002308
87.872340, 0.002518
86.861702, 0.002728
85.851064, 0.002937
84.840426, 0.003147
83.829787, 0.003357
82.819149, 0.003567
81.808511, 0.003777
80.797872, 0.003986
** ... 75 like lines cut
*Concrete Compression Damage
0.000000, 0.000000
0.000000, 0.000794
0.000000, 0.001587
0.000000, 0.002381
0.000000, 0.003175
0.000000, 0.003968
0.000000, 0.004762
0.000000, 0.005556
0.000000, 0.006349
0.000000, 0.007143
0.000000, 0.007937
0.000000, 0.008730
0.000000, 0.009524
0.000000, 0.010317
0.000000, 0.011111
0.000000, 0.011905
0.000000, 0.012698
0.000000, 0.013492
0.000000, 0.014286
0.000000, 0.015079
** ... 219 like lines cut
*Concrete Tension Damage
0.000000, 0.000000
0.010106, 0.000210
0.020213, 0.000420
0.030319, 0.000629
0.040426, 0.000839
0.050532, 0.001049
0.060638, 0.001259
0.070745, 0.001469
0.080851, 0.001678
0.090957, 0.001888
0.101064, 0.002098
0.111170, 0.002308
0.121277, 0.002518
0.131383, 0.002728
0.141489, 0.002937
0.151596, 0.003147
0.161702, 0.003357
0.171809, 0.003567
0.181915, 0.003777
0.192021, 0.003986
** ... 75 like lines cut
*Concrete Failure, TYPE=Strain
0.099444, 0.019722, 0.950000, 0.950000
** 
** ----------------------------------------------------------------
