** ----------------------------------------------------------------
** 
** MATERIALS
** 
*Material, name=Bone
*Density
1.89e-09,
*Elastic
5259.617696, 0.300000
*Concrete Damaged Plasticity
40.000000, 0.100000, 1.160000, 0.666700, 0.000000
*Concrete Compression Hardening
65.763230, 0.000000
66.814337, 0.000086
67.865444, 0.000172
68.916551, 0.000258
69.967658, 0.000343
71.018765, 0.000429
72.069872, 0.000515
73.120979, 0.000601
74.172086, 0.000687
75.223193, 0.000773
76.274300, 0.000859
77.325407, 0.000945
78.376514, 0.001030
79.427621, 0.001116
80.478728, 0.001202
81.529835, 0.001288
82.580942, 0.001374
83.632049, 0.001460
84.683156, 0.001546
85.734263, 0.001632
** ... 112 like lines cut
*Concrete Tension Stiffening
150.000000, 0.000000
148.989362, 0.000709
147.978723, 0.001419
146.968085, 0.002128
145.957447, 0.002838
144.946809, 0.003547
143.936170, 0.004256
142.925532, 0.004966
141.914894, 0.005675
140.904255, 0.006384
139.893617, 0.007094
138.882979, 0.007803
137.872340, 0.008513
136.861702, 0.009222
135.851064, 0.009931
134.840426, 0.010641
133.829787, 0.011350
132.819149, 0.012059
131.808511, 0.012769
130.797872, 0.013478
** ... 122 like lines cut
*Concrete Compression Damage
0.000000, 0.000000
0.000000, 0.000086
0.000000, 0.000172
0.000000, 0.000258
0.000000, 0.000343
0.000000, 0.000429
0.000000, 0.000515
0.000000, 0.000601
0.000000, 0.000687
0.000000, 0.000773
0.000000, 0.000859
0.000000, 0.000945
0.000000, 0.001030
0.000000, 0.001116
0.000000, 0.001202
0.000000, 0.001288
0.000000, 0.001374
0.000000, 0.001460
0.000000, 0.001546
0.000000, 0.001632
** ... 112 like lines cut
*Concrete Tension Damage
0.000000, 0.000000
0.006738, 0.000709
0.013475, 0.001419
0.020213, 0.002128
0.026950, 0.002838
0.033688, 0.003547
0.040426, 0.004256
0.047163, 0.004966
0.053901, 0.005675
0.060638, 0.006384
0.067376, 0.007094
0.074113, 0.007803
0.080851, 0.008513
0.087589, 0.009222
0.094326, 0.009931
0.101064, 0.010641
0.107801, 0.011350
0.114539, 0.012059
0.121277, 0.012769
0.128014, 0.013478
** ... 122 like lines cut
*Concrete Failure, TYPE=Strain
0.031529, 0.100022, 0.950000, 0.950000
** 
** ----------------------------------------------------------------
