** ----------------------------------------------------------------
** 
** MATERIALS
** 
*Material, name=Screw
*Density
4.50e-09,
*Elastic
120000.000000, 0.300000
** 
** ----------------------------------------------------------------
