*Heading
** Job name: Job-1 Model name: contiOpti
** Generated by: Abaqus/CAE 2020
*Preprint, echo=NO, model=NO, history=NO, contact=NO
** 
** ----------------------------------------------------------------
** ----------------------------------------------------------------
**
** PARTS
**
**
*Part, name=Screw
*End Part
**
**
*Part, name=Bone
*End Part
**
** 
** ----------------------------------------------------------------
**
** ASSEMBLY
**
*Assembly, name=Assembly
**
*Instance, name=Bone-1, part=Bone
*Node
11,-5.13979043,-2.27107019,-4.18355035
12,-5.13979043,-2.03201017,-4.18355035
13,-5.13979043,-1.79295015,-4.18355035
14,-5.13979043,-1.55389013,-4.18355035
15,-5.13979043,-1.31483011,-4.18355035
16,-5.13979043,-1.07577009,-4.18355035
17,-5.13979043,-0.83671007,-4.18355035
18,-5.13979043,-0.59765005,-4.18355035
19,-5.13979043,-0.35859003,-4.18355035
20,-5.13979043,-0.11953001,-4.18355035
21,-5.13979043,0.11953001,-4.18355035
22,-5.13979043,0.35859003,-4.18355035
23,-5.13979043,0.59765005,-4.18355035
24,-5.13979043,0.83671007,-4.18355035
36,-5.13979043,3.70543031,-4.18355035
37,-5.13979043,3.94449033,-4.18355035
50,-4.90073041,-2.51013021,-4.18355035
51,-4.90073041,-2.27107019,-4.18355035
52,-4.90073041,-2.03201017,-4.18355035
53,-4.90073041,-1.79295015,-4.18355035
** ... 37211 like lines cut
*Element, type=C3D8, elset=Set-1
1, 11, 51, 52, 12, 1771, 1811, 1812, 1772, 
2, 12, 52, 53, 13, 1772, 1812, 1813, 1773, 
3, 13, 53, 54, 14, 1773, 1813, 1814, 1774, 
4, 14, 54, 55, 15, 1774, 1814, 1815, 1775, 
5, 15, 55, 56, 16, 1775, 1815, 1816, 1776, 
6, 16, 56, 57, 17, 1776, 1816, 1817, 1777, 
7, 17, 57, 58, 18, 1777, 1817, 1818, 1778, 
8, 18, 58, 59, 19, 1778, 1818, 1819, 1779, 
9, 19, 59, 60, 20, 1779, 1819, 1820, 1780, 
10, 20, 60, 61, 21, 1780, 1820, 1821, 1781, 
11, 21, 61, 62, 22, 1781, 1821, 1822, 1782, 
12, 22, 62, 63, 23, 1782, 1822, 1823, 1783, 
13, 23, 63, 64, 24, 1783, 1823, 1824, 1784, 
14, 36, 76, 77, 37, 1796, 1836, 1837, 1797, 
15, 50, 90, 91, 51, 1810, 1850, 1851, 1811, 
16, 51, 91, 92, 52, 1811, 1851, 1852, 1812, 
17, 52, 92, 93, 53, 1812, 1852, 1853, 1813, 
18, 53, 93, 94, 54, 1813, 1853, 1854, 1814, 
19, 54, 94, 95, 55, 1814, 1854, 1855, 1815, 
20, 55, 95, 96, 56, 1815, 1855, 1856, 1816, 
** ... 24462 like lines cut
** Section: Bone
*Solid Section, elset=Set-1, controls=EC-1, material=Bone
,
*End Instance
*Instance, name=Screw-1, part=Screw
*Node
1,-0.90000000,1.00000000,-3.00000000
2,-1.88078833,-0.79560912,6.31451607
3,-1.41837445,0.14708567,6.11451626
4,-0.49748421,1.80621207,5.26774216
5,0.05792797,2.69728851,5.46774197
6,-1.58150071,0.24876303,4.42096758
7,-2.22421193,-0.58155143,4.62096786
8,-0.34548146,1.68855315,3.57419348
9,0.37793386,2.44958556,3.77419376
10,-1.72082019,0.38119614,2.72741938
11,-2.51751626,-0.30274498,2.92741919
12,-0.22027475,1.54270482,1.88064528
13,0.64152694,2.14253640,2.08064508
14,-1.83062929,0.53896314,1.03387117
15,-2.74869323,0.02939606,1.23387098
16,-0.12699008,1.37463805,0.18709683
17,0.83791566,1.78871173,0.38709688
18,-1.90643227,0.71560502,-0.65967751
19,-2.90827847,0.40127373,-0.45967746
20,0.70925188,1.35126019,-1.35502851
** ... 9313 like lines cut
*Element, type=C3D10, elset=Set-2
1, 953, 954, 955, 910, 1442, 1441, 1440, 1444, 1443, 1445, 
2, 953, 956, 710, 957, 1448, 1447, 1446, 1450, 1449, 1451, 
3, 953, 956, 957, 958, 1448, 1449, 1450, 1453, 1452, 1454, 
4, 953, 954, 910, 358, 1442, 1443, 1444, 1456, 1455, 1457, 
5, 959, 960, 961, 962, 1460, 1459, 1458, 1462, 1461, 1463, 
6, 963, 964, 965, 966, 1466, 1465, 1464, 1468, 1467, 1469, 
7, 967, 968, 969, 970, 1472, 1471, 1470, 1474, 1473, 1475, 
8, 967, 971, 972, 969, 1478, 1477, 1476, 1470, 1479, 1480, 
9, 973, 970, 974, 968, 1483, 1482, 1481, 1484, 1473, 1485, 
10, 571, 211, 570, 511, 1488, 1487, 1486, 1490, 1489, 1491, 
11, 975, 968, 976, 974, 1494, 1493, 1492, 1495, 1485, 1496, 
12, 968, 969, 974, 975, 1471, 1497, 1485, 1494, 1498, 1495, 
13, 968, 965, 967, 971, 1500, 1499, 1472, 1502, 1501, 1478, 
14, 971, 965, 964, 968, 1501, 1465, 1503, 1502, 1500, 1504, 
15, 977, 971, 965, 964, 1506, 1501, 1505, 1507, 1503, 1465, 
16, 978, 979, 980, 981, 1510, 1509, 1508, 1512, 1511, 1513, 
17, 978, 982, 983, 984, 1516, 1515, 1514, 1518, 1517, 1519, 
18, 978, 985, 986, 987, 1522, 1521, 1520, 1524, 1523, 1525, 
19, 978, 985, 987, 979, 1522, 1523, 1524, 1510, 1526, 1527, 
20, 978, 982, 985, 979, 1516, 1528, 1522, 1510, 1529, 1526, 
** ... 5486 like lines cut
** Section: Screw
*Solid Section, elset=Set-2, controls=EC-2, material=Screw
,
*End Instance
** ----------------------------------------------------------------
** 
*Nset, nset=BoneSide, instance=Bone-1
11, 12, 13, 14, 15, 16, 17, 18, 19, 20, 21, 22, 23, 24, 36, 37, 
80, 120, 160, 200, 240, 280, 320, 360, 400, 440, 480, 520, 560, 600, 640, 720, 
760, 800, 840, 880, 920, 960, 1000, 1040, 1080, 1120, 1160, 1200, 1240, 1280, 1771, 1772, 
1773, 1774, 1775, 1776, 1777, 1778, 1779, 1780, 1781, 1782, 1783, 1784, 1796, 1797, 1798, 1840, 
1880, 1920, 1960, 2000, 2040, 2080, 2120, 2160, 2200, 2240, 2280, 2320, 2360, 2400, 2480, 2520, 
2560, 2600, 2640, 2680, 2720, 2760, 2800, 2840, 2880, 2920, 2960, 3000, 3040, 3531, 3532, 3533, 
3534, 3535, 3536, 3537, 3538, 3539, 3540, 3543, 3544, 3547, 3548, 3549, 3556, 3557, 3558, 3559, 
3560, 3600, 3640, 3680, 3720, 3760, 3800, 3840, 3880, 3920, 3960, 4000, 4040, 4080, 4120, 4160, 
4200, 4240, 4280, 4320, 4360, 4400, 4440, 4480, 4520, 4560, 4600, 4640, 4680, 4720, 4760, 4800, 
5292, 5293, 5294, 5295, 5296, 5297, 5298, 5299, 5300, 5301, 5303, 5304, 5307, 5308, 5309, 5319, 
5320, 5360, 5400, 5440, 5480, 5520, 5560, 5600, 5640, 5680, 5720, 5760, 5800, 5840, 5880, 5920, 
5960, 6000, 6040, 6080, 6120, 6160, 6200, 6240, 6280, 6320, 6360, 6400, 6440, 6480, 6520, 6560, 
7051, 7052, 7053, 7054, 7055, 7056, 7057, 7058, 7059, 7060, 7061, 7066, 7067, 7160, 7200, 7240, 
7280, 7320, 7360, 7400, 7440, 7480, 7520, 7560, 7600, 7640, 7680, 7760, 7800, 7960, 8000, 8040, 
8080, 8120, 8160, 8200, 8240, 8280, 8320, 8811, 8812, 8813, 8814, 8815, 8816, 8817, 8819, 8820, 
8826, 8827, 8920, 8960, 9000, 9040, 9080, 9120, 9160, 9200, 9240, 9280, 9320, 9360, 9400, 9440, 
9480, 9520, 9560, 9600, 9640, 9680, 9760, 9800, 9840, 9880, 9920, 9960, 10000, 10040, 10080, 10570, 
10571, 10572, 10573, 10574, 10575, 10576, 10577, 10578, 10579, 10580, 10582, 10583, 10584, 10585, 10588, 10589, 
10592, 10593, 10640, 10680, 10720, 10760, 10800, 10840, 10880, 10920, 10960, 11000, 11040, 11120, 11160, 11200, 
11240, 11280, 11320, 11360, 11400, 11440, 11480, 11520, 11640, 11680, 11720, 11760, 11800, 11840, 12330, 12331, 
** ... 107 like lines cut
*Nset, nset=ScrewTop, instance=Screw-1
46,    47,    48,    50,    51,   809,   829,   830,   831,   832,   844,   845,   846,   847,   848,   849
850,   851,   852,   853,   854,   855,   856,   857,   858,   859,   860,   861,   862,   877,   878,   879
3202,  3203,  3204,  3205,  3206,  3207,  3208,  3209,  3210,  3211,  3212,  3213,  3214,  3215,  3216,  3217
3218,  3219,  3220,  3221,  3222,  3223,  3224,  3225,  3226,  3227,  3228,  3229,  3230,  3231,  3232,  3233
3234,  3235,  3236,  3237,  3238,  3239,  3240,  3241,  3242,  3243,  3244,  3245,  3246,  3247,  3248,  3249
3250,  3251,  3252,  3253,  6769,  6771,  6773,  7082,  7084,  7086,  7217,  7218,  7347,  7351,  7352,  7517
7519,  7521,  8414,  8416,  8418,  9228,  9231,  9371,  9373,  9375,  9427,  9430,  9790,  9791, 10142, 10144
10146, 10153, 10360, 10361, 10362, 10657, 10660, 10733, 10734, 11729, 11833, 11835, 11837, 11850, 11851, 11853
11860, 12012, 12013, 12450, 12641, 12644, 13487, 13631, 13860, 13862, 14308, 14461, 14727, 14728, 15005, 15007
15009, 15283, 15561, 15563, 15565, 15891, 15892, 16271, 16954, 16955, 16956, 17047, 17048, 17050, 17069, 17070
17311, 17539, 17543, 17544, 17829, 17830, 17831, 18139, 18141, 18143, 18242, 18245, 18247, 18249, 18251, 18500
18575, 18576, 18637, 18638, 18640, 18823, 18824, 18825, 18830, 18831, 19291, 19292, 19507, 19696, 19697, 19698
19914, 20758, 20762, 20763, 20945, 20960, 20962, 20964, 21075, 21182, 21183, 21223, 21224, 21318, 21385, 23045
23348, 23350, 23351, 23353, 25243, 28044, 28223, 28225, 28227, 28974, 29175, 29177, 29178, 29671, 29674, 31394
31396, 31398, 31403, 31421, 32826, 32827, 32829, 33210, 33211, 33861, 33879, 33897, 33898, 33900, 33904, 33906
34003, 34059, 34131, 34620, 34621, 34828, 34926, 35077, 35493, 36394, 37291, 37301, 37302, 37327, 37331, 37694
38792, 39692, 39713, 39714, 39715, 40535, 40598, 40599, 40600, 40676, 40778, 40779, 41165, 41185, 41190, 41193
41287, 41288, 41345, 41347, 41442, 41450, 41458, 41529, 41549, 41565, 41757, 41891, 41946, 41947, 42237, 42273
42294, 42312, 42353, 42368, 42396, 42399, 42401, 42417, 42418, 42420, 42789, 42876, 42952
*Elset, elset=ScrewTop, instance=Screw-1
108,   181,   221,   253,   298,   550,   792,   851,   865,   965,  1090,  1176,  1276,  1304,  1759,  1765
1824,  2016,  2079,  2686,  3036,  3150,  3394,  3550,  3721,  4008,  4067,  4078,  4309,  4460,  4657,  4717
4718,  4814,  4844,  4873,  4936,  4937,  5084,  5166,  5231,  5588,  5648,  5655,  5744,  5760,  6364,  6419
6527,  6742,  7330,  8608,  8978,  9060,  9124,  9283, 10108, 10878, 11100, 11560, 11585, 11590, 11681, 11719
12163, 14017, 14913, 14924, 14951, 15379, 17643, 18444, 18492, 18534, 18598, 18605, 18621, 18714, 18896, 19309
19345, 19413, 19464, 19563, 19565, 19576, 19606, 19729, 19734, 19738, 19771, 19794, 19810, 20107, 20116, 20320
20409, 20713, 20761, 20854, 20858, 20963, 21044, 21097, 21155, 21164, 21168, 21181, 21221, 21286, 21288, 21337
21388, 21390, 21398, 21429, 21431, 21433, 21441, 21454, 21934, 22354, 22631, 22948, 22949, 22951, 23561, 23566
24006, 24684, 24849, 24864, 26144, 26982
*Nset, nset=ScrewTopRef, instance=Screw-1
46, 47, 48, 50, 51, 412, 413, 419, 420, 421, 422, 423, 424, 425, 426, 427, 
434, 943, 944, 945, 946, 947, 948, 949, 950, 951, 952, 1563, 2271, 2294, 2295, 2296, 
2405, 2406, 2407, 2465, 2467, 2739, 2740, 2741, 2753, 2776, 2777, 2778, 3383, 3398, 3779, 3780, 
4262, 4263, 4343, 4344, 4738, 5088, 5090, 5092, 5267, 5711, 5734, 5735, 5736, 5916, 5917, 5919, 
5946, 7108, 7159, 7184, 7376, 7541, 7630, 7636, 7637, 7871, 7872, 8441, 8672, 8732, 8763, 8764, 
8765, 8799, 8855, 8894, 8921, 8924, 8996, 9209, 
** 
** ----------------------------------------------------------------
*End Assembly
** 
** ----------------------------------------------------------------
** ----------------------------------------------------------------
** 
** ELEMENT CONTROLS
**
*Section Controls, name=EC-1, DISTORTION CONTROL=YES, ELEMENT DELETION=YES, MAX DEGRADATION=0.8, second order accuracy=YES
1., 1., 1.
** 
** ----------------------------------------------------------------
** ----------------------------------------------------------------
** 
** ELEMENT CONTROLS
**
*Section Controls, name=EC-2, DISTORTION CONTROL=YES, ELEMENT DELETION=NO, MAX DEGRADATION=0.8, second order accuracy=YES
1., 1., 1.
** 
** ----------------------------------------------------------------
** ----------------------------------------------------------------
** 
*Amplitude, name=Amp-1
0.,              0.,              1.,              1.
** 
** ----------------------------------------------------------------
** ----------------------------------------------------------------
** 
** MATERIALS
** 
*Material, name=Bone
*Density
1.89e-09,
*Elastic
10000.000000, 0.300000
*Concrete Damaged Plasticity
40.000000, 0.100000, 1.160000, 0.666700, 0.000000
*Concrete Compression Hardening
100.000000, 0.000000
101.052632, 0.000421
102.105263, 0.000842
103.157895, 0.001263
104.210526, 0.001684
105.263158, 0.002105
106.315789, 0.002526
107.368421, 0.002947
108.421053, 0.003368
109.473684, 0.003789
110.526316, 0.004211
111.578947, 0.004632
112.631579, 0.005053
113.684211, 0.005474
114.736842, 0.005895
115.789474, 0.006316
116.842105, 0.006737
117.894737, 0.007158
118.947368, 0.007579
120.000000, 0.008000
** ... 113 like lines cut
*Concrete Tension Stiffening
50.000000, 0.000000
48.967391, 0.000212
47.934783, 0.000424
46.902174, 0.000636
45.869565, 0.000848
44.836957, 0.001060
43.804348, 0.001272
42.771739, 0.001484
41.739130, 0.001696
40.706522, 0.001908
39.673913, 0.002120
38.641304, 0.002332
37.608696, 0.002543
36.576087, 0.002755
35.543478, 0.002967
34.510870, 0.003179
33.478261, 0.003391
32.445652, 0.003603
31.413043, 0.003815
30.380435, 0.004027
** ... 27 like lines cut
*Concrete Compression Damage
0.000000, 0.000000
0.000000, 0.000421
0.000000, 0.000842
0.000000, 0.001263
0.000000, 0.001684
0.000000, 0.002105
0.000000, 0.002526
0.000000, 0.002947
0.000000, 0.003368
0.000000, 0.003789
0.000000, 0.004211
0.000000, 0.004632
0.000000, 0.005053
0.000000, 0.005474
0.000000, 0.005895
0.000000, 0.006316
0.000000, 0.006737
0.000000, 0.007158
0.000000, 0.007579
0.000000, 0.008000
** ... 113 like lines cut
*Concrete Tension Damage
0.000000, 0.000000
0.020652, 0.000212
0.041304, 0.000424
0.061957, 0.000636
0.082609, 0.000848
0.103261, 0.001060
0.123913, 0.001272
0.144565, 0.001484
0.165217, 0.001696
0.185870, 0.001908
0.206522, 0.002120
0.227174, 0.002332
0.247826, 0.002543
0.268478, 0.002755
0.289130, 0.002967
0.309783, 0.003179
0.330435, 0.003391
0.351087, 0.003603
0.371739, 0.003815
0.392391, 0.004027
** ... 27 like lines cut
*Concrete Failure, TYPE=Strain
0.049400, 0.009750, 0.950000, 0.950000
** 
** ----------------------------------------------------------------
** ----------------------------------------------------------------
** 
** MATERIALS
** 
*Material, name=Screw
*Density
4.50e-09,
*Elastic
120000.000000, 0.300000
** 
** ----------------------------------------------------------------
** ----------------------------------------------------------------
** 
** INTERACTION PROPERTIES
** 
*Surface Interaction, name=IntProp-1
*Friction
0.300000,
*Surface Behavior, pressure-overclosure=HARD
** 
** INTERACTIONS
** 
** Interaction: Int-1
*Contact, op=NEW
*Contact Inclusions, ALL EXTERIOR
*Contact Property Assignment
 ,  , IntProp-1
** 
** ----------------------------------------------------------------
** ----------------------------------------------------------------
** 
** STEP: Step-1
** 
*Step, name=Step-1, nlgeom=YES
*Dynamic, Explicit
, 1.
*Bulk Viscosity
0.06, 1.2
** Mass Scaling: Semi-Automatic
**               Whole Model
*Fixed Mass Scaling, dt=1e-04, type=below min
** 
** ----------------------------------------------------------------
** ----------------------------------------------------------------
** 
** BOUNDARY CONDITIONS
** 
** Name: BC-1 Type: Displacement/Rotation
*Boundary, amplitude=Amp-1
ScrewTopRef, 3, 3, 2.500000
** Name: BC-2 Type: Displacement/Rotation
*Boundary, amplitude=Amp-1
BoneSide, 1, 1
BoneSide, 2, 2
BoneSide, 3, 3
** 
** ----------------------------------------------------------------
** ----------------------------------------------------------------
** 
** OUTPUT REQUESTS
** 
*Restart, write, number interval=1, time marks=NO
** 
** FIELD OUTPUT: F-Output-1
** 
*Output, field
*Node Output
A, RF, TIEADJUST, TIEDSTATUS, U, V
*Element Output, directions=YES
BURNF, DAMAGEC, DAMAGEMC, DAMAGEMT, DAMAGESHR, DAMAGET, DBURNF, DENSITY, DENSITYVAVG, EACTIVE, EMSF, ESDV, EVF, FV, LE, MFR
PE, PEEQ, PEEQVAVG, PEVAVG, RHOE, RHOP, S, SDV, STATUS, SVAVG, UVARM
*Contact Output
CSTRESS, 
** 
** HISTORY OUTPUT: H-Output-2
** 
*Output, history
*Node Output, nset=ScrewTopRef
RF3, U3, UR3
** 
** HISTORY OUTPUT: H-Output-1
** 
*Output, history, variable=PRESELECT
*End Step
** 
** ----------------------------------------------------------------
