*Heading
** Job name: Job-1 Model name: Model-1
** Generated by: Abaqus/CAE 2020
*Preprint, echo=NO, model=NO, history=NO, contact=NO
**
** PARTS
**
*Part, name=Part-1
*Node
      1,           0.,           0.
      2,          15.,           0.
      3,           0.,          15.
      4,           0.,         -15.
      5,         -15.,           0.
      6,   2.14285707,           0.
      7,   4.28571415,           0.
      8,   6.42857122,           0.
      9,    8.5714283,           0.
     10,   10.7142859,           0.
     11,   12.8571424,           0.
     12,   14.8473215,   2.13472247
     13,    14.392395,   4.22598839
     14,   13.6444798,   6.23122501
     15,    12.618803,   8.10961246
     16,   11.3362436,   9.82291126
     17,   9.82291126,   11.3362436
     18,   8.10961246,    12.618803
     19,   6.23122501,   13.6444798
     20,   4.22598839,    14.392395
** ... 191 like lines cut
*Element, type=CPS4R
 2,  80,   9,  10,  81
 3,  92,  95,  79,  80
 4,  75,  19,  20,  70
 5,  87,  90,  73,  75
 6,  21, 103,  70,  20
 7,  16,  72,  71,  15
 8,   3,  22, 103,  21
 9,   9,  80,  79,   8
10,  15,  71,  76,  14
11,  80,  81, 101,  92
12,  11, 102,  81,  10
13,  74, 101,  81, 102
14,  11,   2,  12, 102
15,  74,  13,  14,  76
16,  77,  17,  18,  73
17,  93, 100,  97,  94
18,   8,  79,  84,   7
19,  91,  83,  84,  96
20,   6,  83,  27,   1
21,  19,  75,  73,  18
** ... 166 like lines cut
*Element, type=CPS3
1,  76, 101,  74
48, 106, 136, 112
95, 177, 170, 165
145, 182, 208, 185
*Nset, nset=Set-1, generate
   1,  211,    1
*Elset, elset=Set-1, generate
   1,  190,    1
** Section: Section-1
*Solid Section, elset=Set-1, material=Material-1
,
*End Part
**  
**
** ASSEMBLY
**
*Assembly, name=Assembly
**  
*Instance, name=Part-1-1, part=Part-1
*End Instance
**  
*Nset, nset=Set-1, instance=Part-1-1
 1,
*Nset, nset=Set-2, instance=Part-1-1
  1,  2,  5,  6,  7,  8,  9, 10, 11, 44, 45, 46, 47, 48, 49
*Elset, elset=Set-2, instance=Part-1-1
   2,   9,  12,  14,  18,  20,  33,  55,  56,  64,  66,  73,  79,  94,  96,  97
 101, 104, 108, 119, 120, 146, 151, 153, 156, 161, 172, 174
*Nset, nset=Set-3, instance=Part-1-1
  1,  3,  4, 22, 23, 24, 25, 26, 27, 28, 29, 30, 31, 32, 33
*Elset, elset=Set-3, instance=Part-1-1
   8,  20,  24,  27,  28,  32,  47,  53,  57,  59,  61,  64,  69,  88, 103, 107
 108, 109, 112, 113, 129, 152, 161, 162, 164, 168, 176, 177
*Elset, elset=_Surf-1_S2, internal, instance=Part-1-1
   4,  14,  15,  16,  22,  46,  52,  61,  70,  72,  93, 149, 153, 165, 166, 167
 190,
*Elset, elset=_Surf-1_S4, internal, instance=Part-1-1
   6,   7,   8,  10,  21,  49,  51,  54,  56,  62,  63, 147, 152, 158, 159, 160
*Elset, elset=_Surf-1_S1, internal, instance=Part-1-1
  96, 109, 115, 117, 122, 142
*Elset, elset=_Surf-1_S3, internal, instance=Part-1-1
  98,  99, 102, 114, 116
*Surface, type=ELEMENT, name=Surf-1
_Surf-1_S2, S2
_Surf-1_S4, S4
_Surf-1_S1, S1
_Surf-1_S3, S3
*End Assembly
** 
** MATERIALS
** 
*Material, name=Material-1
*Elastic
 2.1e+11, 0.2
** ----------------------------------------------------------------
** 
** STEP: Step-1
** 
*Step, name=Step-1, nlgeom=NO
*Static
1., 1., 1e-05, 1.
** 
** BOUNDARY CONDITIONS
** 
** Name: BC-1 Type: Displacement/Rotation
*Boundary
Set-2, 2, 2
** Name: BC-2 Type: Displacement/Rotation
*Boundary
Set-3, 1, 1
** 
** LOADS
** 
** Name: Load-1   Type: Pressure
*Dsload
Surf-1, P, 1e+07
** 
** OUTPUT REQUESTS
** 
*Restart, write, frequency=0
** 
** FIELD OUTPUT: F-Output-1
** 
*Output, field, variable=PRESELECT
** 
** HISTORY OUTPUT: H-Output-1
** 
*Output, history, variable=PRESELECT
*End Step
